
     RDKit          3D

  7  6  0  0  0  0  0  0  0  0999 V2000
   24.4156    9.3494   30.7645 C   0  0  0  0  0  0  0  0  0  0  0  0
   22.7670    8.5209   26.9496 C   0  0  0  0  0  0  0  0  0  0  0  0
   24.3904    9.1881   32.1468 C   0  0  0  0  0  0  0  0  0  0  0  0
   22.4665    9.2286   29.3064 C   0  0  0  0  0  0  0  0  0  0  0  0
   23.2822   10.0578   30.1109 C   0  0  0  0  0  0  0  0  0  0  0  0
   25.4665    9.3333   30.0750 O   0  0  0  0  0  0  0  0  0  0  0  0
   22.5540    9.6551   27.8754 N   0  0  0  0  0  0  0  0  0  0  0  0
  3  1  1  0
  5  1  1  0
  5  4  1  0
  6  1  1  0
  7  2  1  0
  7  4  1  0
M  END
$$$$
