
     RDKit          3D

 10 10  0  0  0  0  0  0  0  0999 V2000
   24.2094    8.0107   28.7230 C   0  0  0  0  0  0  0  0  0  0  0  0
   22.3075    7.1041   26.6576 C   0  0  0  0  0  0  0  0  0  0  0  0
   23.1067    7.8166   27.7875 C   0  0  0  0  0  0  0  0  0  0  0  0
   23.7334    8.4862   30.1132 C   0  0  0  0  0  0  0  0  0  0  0  0
   22.8777    6.0099   25.9567 C   0  0  0  0  0  0  0  0  0  0  0  0
   23.3642   10.2229   28.4218 C   0  0  0  0  0  0  0  0  0  0  0  0
   23.1274   11.5759   27.9748 O   0  0  0  0  0  0  0  0  0  0  0  0
   22.4333    9.1709   27.7654 C   0  0  0  0  0  0  0  0  0  0  0  0
   23.1914    9.9341   29.8942 C   0  0  0  0  0  0  0  0  0  0  0  0
   21.9153    9.5708   26.5123 O   0  0  0  0  0  0  0  0  0  0  0  0
  3  1  1  0
  3  2  1  0
  4  1  1  0
  5  2  1  0
  7  6  1  0
  8  3  1  0
  8  6  1  0
  9  4  1  0
  9  6  1  0
 10  8  1  0
M  END
$$$$
