
     RDKit          3D

 13 12  0  0  0  0  0  0  0  0999 V2000
   23.5835    8.5573   25.2002 C   0  0  0  0  0  0  0  0  0  0  0  0
   24.3509    6.3678   26.1506 C   0  0  0  0  0  0  0  0  0  0  0  0
   22.5714    9.9134   29.0908 C   0  0  0  0  0  0  0  0  0  0  0  0
   23.0909    8.1910   27.6051 C   0  0  0  0  0  0  0  0  0  0  0  0
   23.2512   10.8104   29.6374 O   0  0  0  0  0  0  0  0  0  0  0  0
   22.7291    9.6106   27.7305 C   0  0  0  0  0  0  0  0  0  0  0  0
   21.7006    9.1883   29.8040 O   0  0  0  0  0  0  0  0  0  0  0  0
   22.0062    7.4038   26.8113 C   0  0  0  0  0  0  0  0  0  0  0  0
   22.5223    9.7163   25.1868 C   0  0  0  0  0  0  0  0  0  0  0  0
   23.5251    7.6662   26.3676 C   0  0  0  0  0  0  0  0  0  0  0  0
   22.5002   10.4006   26.5458 C   0  0  0  0  0  0  0  0  0  0  0  0
   24.7614    8.9760   29.1361 O   0  0  0  0  0  0  0  0  0  0  0  0
   24.0404    7.8539   28.7643 C   0  0  0  0  0  0  0  0  0  0  0  0
  5  3  1  0
  6  3  1  0
  6  4  1  0
  7  3  1  0
  8  4  1  0
 10  1  1  0
 10  2  1  0
 10  4  1  0
 11  6  1  0
 11  9  1  0
 13  4  1  0
 13 12  1  0
M  END
$$$$
