
     RDKit          3D

 11 11  0  0  0  0  0  0  0  0999 V2000
   22.1805    8.7308   25.6626 C   0  0  0  0  0  0  0  0  0  0  0  0
   23.0026    7.2124   27.6931 C   0  0  0  0  0  0  0  0  0  0  0  0
   22.7830    9.3338   26.7235 C   0  0  0  0  0  0  0  0  0  0  0  0
   24.7128    9.1849   31.0794 C   0  0  0  0  0  0  0  0  0  0  0  0
   22.0597    7.3475   25.5375 C   0  0  0  0  0  0  0  0  0  0  0  0
   22.5488    6.5772   26.5963 C   0  0  0  0  0  0  0  0  0  0  0  0
   23.8129    9.1720   28.9970 C   0  0  0  0  0  0  0  0  0  0  0  0
   25.5738   10.1723   30.5578 O   0  0  0  0  0  0  0  0  0  0  0  0
   22.7574   10.0609   29.5971 C   0  0  0  0  0  0  0  0  0  0  0  0
   23.2230    8.5136   27.7413 C   0  0  0  0  0  0  0  0  0  0  0  0
   24.5481    8.2265   29.8697 C   0  0  0  0  0  0  0  0  0  0  0  0
  3  1  1  0
  5  1  1  0
  6  2  2  0
  6  5  1  0
  8  4  1  0
  9  7  1  0
 10  2  2  0
 10  3  1  0
 10  7  1  0
 11  4  1  0
 11  7  1  0
M  END
$$$$
