
     RDKit          3D

 12 13  0  0  0  0  0  0  0  0999 V2000
   21.7819    6.8548   25.7771 O   0  0  0  0  0  0  0  0  0  0  0  0
   25.2038    7.0422   27.4392 C   0  0  0  0  0  0  0  0  0  0  0  0
   23.5449    8.0389   26.4853 C   0  0  0  0  0  0  0  0  0  0  0  0
   23.2245    8.5107   29.0834 C   0  0  0  0  0  0  0  0  0  0  0  0
   24.5022    7.8049   28.5896 C   0  0  0  0  0  0  0  0  0  0  0  0
   23.4148    9.9361   29.7088 C   0  0  0  0  0  0  0  0  0  0  0  0
   23.6909   11.0525   29.0425 O   0  0  0  0  0  0  0  0  0  0  0  0
   23.4008    9.9639   30.9905 O   0  0  0  0  0  0  0  0  0  0  0  0
   22.1875    8.1018   25.9592 C   0  0  0  0  0  0  0  0  0  0  0  0
   21.5370    9.0982   25.8889 O   0  0  0  0  0  0  0  0  0  0  0  0
   24.3199    6.9078   26.3375 C   0  0  0  0  0  0  0  0  0  0  0  0
   23.7332    8.6909   27.7416 N   0  0  0  0  0  0  0  0  0  0  0  0
  5  2  1  0
  5  4  1  0
  6  4  1  0
  7  6  1  0
  8  6  1  0
  9  1  1  0
  9  3  1  0
 10  9  2  0
 11  2  1  0
 11  3  1  0
 12  3  1  0
 12  4  1  0
 12  5  1  0
M  END
$$$$
