
     RDKit          3D

 11 11  0  0  0  0  0  0  0  0999 V2000
   23.0059    6.5429   25.6996 C   0  0  0  0  0  0  0  0  0  0  0  0
   24.3476    7.7205   28.1158 C   0  0  0  0  0  0  0  0  0  0  0  0
   22.9326    7.4846   28.5226 C   0  0  0  0  0  0  0  0  0  0  0  0
   21.6607    7.3268   27.6756 C   0  0  0  0  0  0  0  0  0  0  0  0
   26.4416    7.5190   29.4417 C   0  0  0  0  0  0  0  0  0  0  0  0
   25.1538    6.6376   27.3442 C   0  0  0  0  0  0  0  0  0  0  0  0
   24.3977    6.0387   26.2183 C   0  0  0  0  0  0  0  0  0  0  0  0
   22.3242    5.3185   25.3877 N   0  0  0  0  0  0  0  0  0  0  0  0
   21.9077    7.5381   26.1916 C   0  0  0  0  0  0  0  0  0  0  0  0
   25.0934    8.1411   29.3478 C   0  0  0  0  0  0  0  0  0  0  0  0
   22.4431    8.3397   29.6815 C   0  0  0  0  0  0  0  0  0  0  0  0
  3  2  1  0
  4  3  1  0
  6  2  1  0
  7  1  1  0
  7  6  1  0
  8  1  1  0
  9  1  1  0
  9  4  1  0
 10  2  1  0
 10  5  1  0
 11  3  1  0
M  END
$$$$
