
     RDKit          3D

 10 10  0  0  0  0  0  0  0  0999 V2000
   17.6681   -0.8524    3.6212 C   0  0  0  0  0  0  0  0  0  0  0  0
   19.6394    0.5220    3.3725 C   0  0  0  0  0  0  0  0  0  0  0  0
   17.5243   -0.8619    2.1809 C   0  0  0  0  0  0  0  0  0  0  0  0
   20.7523    1.1769    3.7367 N   0  0  0  0  0  0  0  0  0  0  0  0
   18.6314   -0.1774    4.1481 C   0  0  0  0  0  0  0  0  0  0  0  0
   19.5427    0.4101    1.9496 C   0  0  0  0  0  0  0  0  0  0  0  0
   16.3992   -1.4200    1.6512 O   0  0  0  0  0  0  0  0  0  0  0  0
   18.4699   -0.2387    1.4235 C   0  0  0  0  0  0  0  0  0  0  0  0
   20.9912    1.5179    5.0144 C   0  0  0  0  0  0  0  0  0  0  0  0
   20.6288    0.5065    5.8661 O   0  0  0  0  0  0  0  0  0  0  0  0
  3  1  1  0
  4  2  1  0
  5  1  2  0
  5  2  1  0
  6  2  1  0
  7  3  1  0
  8  3  1  0
  8  6  2  0
  9  4  1  0
 10  9  1  0
M  END
$$$$
