
     RDKit          3D

 15 16  0  0  0  0  0  0  0  0999 V2000
   18.8363   -0.5532    0.9014 C   0  0  0  0  0  0  0  0  0  0  0  0
   22.7568    3.0761    5.7542 C   0  0  0  0  0  0  0  0  0  0  0  0
   18.1073   -0.3988    4.6467 C   0  0  0  0  0  0  0  0  0  0  0  0
   22.0588    1.0213    6.3664 O   0  0  0  0  0  0  0  0  0  0  0  0
   17.9782   -0.6947    3.3237 C   0  0  0  0  0  0  0  0  0  0  0  0
   21.9324    1.9968    5.4593 C   0  0  0  0  0  0  0  0  0  0  0  0
   19.9008    0.6426    2.7261 C   0  0  0  0  0  0  0  0  0  0  0  0
   21.0160    2.0475    4.4247 C   0  0  0  0  0  0  0  0  0  0  0  0
   21.7375   -0.1675    6.5580 O   0  0  0  0  0  0  0  0  0  0  0  0
   21.8528    4.2039    3.8994 C   0  0  0  0  0  0  0  0  0  0  0  0
   19.1318    0.4830    5.0380 C   0  0  0  0  0  0  0  0  0  0  0  0
   22.6422    4.2370    5.0060 C   0  0  0  0  0  0  0  0  0  0  0  0
   18.8680   -0.2060    2.3643 C   0  0  0  0  0  0  0  0  0  0  0  0
   21.0489    3.1600    3.5550 C   0  0  0  0  0  0  0  0  0  0  0  0
   19.9830    0.9533    4.1021 C   0  0  0  0  0  0  0  0  0  0  0  0
  5  3  1  0
  6  2  1  0
  6  4  1  0
  8  6  1  0
  9  4  1  0
 11  3  1  0
 12  2  1  0
 12 10  2  0
 13  1  1  0
 13  5  1  0
 13  7  1  0
 14  8  1  0
 14 10  1  0
 15  7  1  0
 15  8  1  0
 15 11  2  0
M  END
$$$$
