
     RDKit          3D

 13 14  0  0  0  0  0  0  0  0999 V2000
   17.4830   -1.1386    3.1287 C   0  0  0  0  0  0  0  0  0  0  0  0
   16.6626   -2.1535    2.6931 C   0  0  0  0  0  0  0  0  0  0  0  0
   16.8220   -3.4879    3.1973 C   0  0  0  0  0  0  0  0  0  0  0  0
   17.7139   -3.7507    4.2126 C   0  0  0  0  0  0  0  0  0  0  0  0
   20.9243    0.8782    5.8523 C   0  0  0  0  0  0  0  0  0  0  0  0
   18.4421   -1.4026    4.0870 C   0  0  0  0  0  0  0  0  0  0  0  0
   18.5776   -2.6243    4.6969 C   0  0  0  0  0  0  0  0  0  0  0  0
   20.8014    1.5351    4.4775 C   0  0  0  0  0  0  0  0  0  0  0  0
   14.6424   -4.4208    2.9080 O   0  0  0  0  0  0  0  0  0  0  0  0
   16.0153   -4.6086    2.5523 C   0  0  0  0  0  0  0  0  0  0  0  0
   19.3206   -0.3613    4.5706 N   0  0  0  0  0  0  0  0  0  0  0  0
   19.6149    0.8564    3.7956 C   0  0  0  0  0  0  0  0  0  0  0  0
   19.8198   -0.2033    5.9422 C   0  0  0  0  0  0  0  0  0  0  0  0
  2  1  1  0
  3  2  1  0
  4  3  1  0
  6  1  1  0
  7  4  1  0
  7  6  1  0
  8  5  1  0
 10  3  1  0
 10  9  1  0
 11  6  1  0
 12  8  1  0
 12 11  1  0
 13  5  1  0
 13 11  1  0
M  END
$$$$
