
     RDKit          3D

  9  9  0  0  0  0  0  0  0  0999 V2000
   19.0429   -0.0421    4.2849 C   0  0  0  0  0  0  0  0  0  0  0  0
   18.5164   -0.8830    1.6821 C   0  0  0  0  0  0  0  0  0  0  0  0
   19.2357    0.7799    3.2149 C   0  0  0  0  0  0  0  0  0  0  0  0
   20.7584    0.2346    6.1287 C   0  0  0  0  0  0  0  0  0  0  0  0
   18.2622   -1.2229    0.2553 C   0  0  0  0  0  0  0  0  0  0  0  0
   18.9498    0.4319    1.9995 N   0  0  0  0  0  0  0  0  0  0  0  0
   18.5792   -1.2808    4.0302 C   0  0  0  0  0  0  0  0  0  0  0  0
   18.3121   -1.7687    2.7282 C   0  0  0  0  0  0  0  0  0  0  0  0
   19.3738    0.5904    5.6507 C   0  0  0  0  0  0  0  0  0  0  0  0
  3  1  1  0
  5  2  1  0
  6  2  1  0
  6  3  2  0
  7  1  2  0
  8  2  1  0
  8  7  1  0
  9  1  1  0
  9  4  1  0
M  END
$$$$
