
     RDKit          3D

  7  7  0  0  0  0  0  0  0  0999 V2000
   19.7027    1.3113    3.3942 C   0  0  0  0  0  0  0  0  0  0  0  0
   19.5292    0.3580    4.4379 C   0  0  0  0  0  0  0  0  0  0  0  0
   21.6276    2.3111    4.5385 C   0  0  0  0  0  0  0  0  0  0  0  0
   20.7176    2.2128    3.3810 C   0  0  0  0  0  0  0  0  0  0  0  0
   20.2726    0.4706    5.6615 C   0  0  0  0  0  0  0  0  0  0  0  0
   21.4162    1.4816    5.7479 C   0  0  0  0  0  0  0  0  0  0  0  0
   22.6162    3.2680    4.5091 O   0  0  0  0  0  0  0  0  0  0  0  0
  2  1  1  0
  4  1  2  0
  4  3  1  0
  5  2  1  0
  6  3  1  0
  6  5  1  0
  7  3  1  0
M  END
$$$$
