
     RDKit          3D

 15 16  0  0  0  0  0  0  0  0999 V2000
   19.9677    0.9359    3.9962 C   0  0  0  0  0  0  0  0  0  0  0  0
   18.9029    0.5578    3.0027 C   0  0  0  0  0  0  0  0  0  0  0  0
   19.9827    0.2681    5.2459 C   0  0  0  0  0  0  0  0  0  0  0  0
   22.1278    3.7925    4.8960 C   0  0  0  0  0  0  0  0  0  0  0  0
   22.0544    4.4950    5.9854 O   0  0  0  0  0  0  0  0  0  0  0  0
   16.9553   -0.9679    1.5692 C   0  0  0  0  0  0  0  0  0  0  0  0
   21.5251    2.5199    4.8756 C   0  0  0  0  0  0  0  0  0  0  0  0
   19.3985   -0.0281    1.6914 C   0  0  0  0  0  0  0  0  0  0  0  0
   20.9729    0.6113    6.2320 C   0  0  0  0  0  0  0  0  0  0  0  0
   18.4539   -1.1285    1.1891 C   0  0  0  0  0  0  0  0  0  0  0  0
   21.7644    1.7420    6.0324 C   0  0  0  0  0  0  0  0  0  0  0  0
   20.7376    2.1034    3.7812 C   0  0  0  0  0  0  0  0  0  0  0  0
   16.6456    0.0133    2.7051 C   0  0  0  0  0  0  0  0  0  0  0  0
   17.6776    0.2104    3.6276 N   0  0  0  0  0  0  0  0  0  0  0  0
   22.6086    4.2974    3.7181 N   0  0  0  0  0  0  0  0  0  0  0  0
  2  1  1  0
  3  1  1  0
  5  4  1  0
  7  4  1  0
  8  2  1  0
  9  3  1  0
 10  6  1  0
 10  8  1  0
 11  7  1  0
 11  9  1  0
 12  1  1  0
 12  7  1  0
 13  6  1  0
 14  2  1  0
 14 13  1  0
 15  4  1  0
M  END
$$$$
