
     RDKit          3D

  8  7  0  0  0  0  0  0  0  0999 V2000
   37.4430   49.9536   43.3870 C   0  0  0  0  0  0  0  0  0  0  0  0
   38.5481   48.9618   43.0566 C   0  0  0  0  0  0  0  0  0  0  0  0
   38.4143   47.6342   42.8825 C   0  0  0  0  0  0  0  0  0  0  0  0
   36.1830   51.6702   42.6792 C   0  0  0  0  0  0  0  0  0  0  0  0
   35.9615   53.0049   41.9269 C   0  0  0  0  0  0  0  0  0  0  0  0
   37.8984   47.0896   43.9790 C   0  0  0  0  0  0  0  0  0  0  0  0
   37.3819   51.0605   42.3783 C   0  0  0  0  0  0  0  0  0  0  0  0
   36.3334   49.6638   43.6756 O   0  0  0  0  0  0  0  0  0  0  0  0
  2  1  1  0
  3  2  2  0
  5  4  1  0
  6  3  2  0
  7  1  1  0
  7  4  1  0
  8  1  2  0
M  END
$$$$
