
     RDKit          3D

 29 31  0  0  0  0  0  0  0  0999 V2000
   36.2885   49.4127   43.8828 C   0  0  0  0  0  0  0  0  0  0  0  0
   35.0864   51.6579   44.6749 C   0  0  0  0  0  0  0  0  0  0  0  0
   30.5247   59.5470   46.5645 C   0  0  0  0  0  0  0  0  0  0  0  0
   32.2061   59.6760   44.5136 O   0  0  0  0  0  0  0  0  0  0  0  0
   33.1019   55.4096   45.2718 C   0  0  0  0  0  0  0  0  0  0  0  0
   36.4096   51.7216   44.0350 C   0  0  0  0  0  0  0  0  0  0  0  0
   30.2089   58.6161   41.8670 O   0  0  0  0  0  0  0  0  0  0  0  0
   34.9877   55.4143   44.3637 C   0  0  0  0  0  0  0  0  0  0  0  0
   32.8515   57.2500   43.5552 C   0  0  0  0  0  0  0  0  0  0  0  0
   31.5184   57.1640   45.8989 C   0  0  0  0  0  0  0  0  0  0  0  0
   37.3645   54.3788   42.9335 C   0  0  0  0  0  0  0  0  0  0  0  0
   35.3093   54.0424   44.1665 N   0  0  0  0  0  0  0  0  0  0  0  0
   34.3720   53.0015   44.6561 C   0  0  0  0  0  0  0  0  0  0  0  0
   38.2131   54.8472   41.7904 C   0  0  0  0  0  0  0  0  0  0  0  0
   34.6001   55.3187   41.1809 C   0  0  0  0  0  0  0  0  0  0  0  0
   37.4817   49.8824   44.5025 C   0  0  0  0  0  0  0  0  0  0  0  0
   31.7085   57.4808   44.4080 C   0  0  0  0  0  0  0  0  0  0  0  0
   35.4613   50.6788   43.6562 C   0  0  0  0  0  0  0  0  0  0  0  0
   31.2948   58.8777   43.9125 C   0  0  0  0  0  0  0  0  0  0  0  0
   31.3732   59.1311   42.4753 C   0  0  0  0  0  0  0  0  0  0  0  0
   35.8138   55.1372   42.0486 C   0  0  0  0  0  0  0  0  0  0  0  0
   38.7145   49.0443   44.2794 C   0  0  0  0  0  0  0  0  0  0  0  0
   29.4030   59.0328   45.5944 C   0  0  0  0  0  0  0  0  0  0  0  0
   32.7281   56.3675   46.3340 C   0  0  0  0  0  0  0  0  0  0  0  0
   33.6320   55.9360   44.0534 C   0  0  0  0  0  0  0  0  0  0  0  0
   29.9323   58.4329   44.3349 C   0  0  0  0  0  0  0  0  0  0  0  0
   35.8964   53.9062   42.8271 C   0  0  0  0  0  0  0  0  0  0  0  0
   37.5664   51.3504   44.5947 C   0  0  0  0  0  0  0  0  0  0  0  0
   31.4077   58.3668   46.8193 C   0  0  0  0  0  0  0  0  0  0  0  0
  6  2  1  0
 12  8  1  0
 13  2  1  0
 13 12  1  0
 14 11  1  0
 16  1  1  0
 17  9  1  0
 17 10  1  0
 18  1  1  0
 18  2  1  0
 18  6  1  0
 19  4  1  0
 19 17  1  0
 20  7  1  0
 20 19  1  0
 21 15  1  0
 22 16  1  0
 23  3  1  0
 24  5  1  0
 24 10  1  0
 25  5  1  0
 25  8  1  0
 26 19  1  0
 26 23  1  0
 27 11  1  0
 27 12  1  0
 27 21  1  0
 28  6  2  0
 28 16  1  0
 29  3  1  0
 29 10  1  0
M  END
$$$$
