
     RDKit          3D

 13 13  0  0  0  0  0  0  0  0999 V2000
   38.7832   44.4963   43.3469 C   0  0  0  0  0  0  0  0  0  0  0  0
   38.9838   46.6304   42.0528 C   0  0  0  0  0  0  0  0  0  0  0  0
   37.5484   50.8178   44.7565 C   0  0  0  0  0  0  0  0  0  0  0  0
   38.7422   49.2502   41.3906 C   0  0  0  0  0  0  0  0  0  0  0  0
   38.5304   48.0527   42.3528 C   0  0  0  0  0  0  0  0  0  0  0  0
   37.8054   48.2086   43.6844 C   0  0  0  0  0  0  0  0  0  0  0  0
   37.7116   49.8576   43.6053 C   0  0  0  0  0  0  0  0  0  0  0  0
   37.7735   46.7095   44.1932 C   0  0  0  0  0  0  0  0  0  0  0  0
   38.1210   50.3772   42.2528 C   0  0  0  0  0  0  0  0  0  0  0  0
   39.4005   43.8047   42.2116 C   0  0  0  0  0  0  0  0  0  0  0  0
   38.5289   45.8943   43.2589 C   0  0  0  0  0  0  0  0  0  0  0  0
   39.5996   45.9171   40.9864 C   0  0  0  0  0  0  0  0  0  0  0  0
   39.8025   44.4427   41.0938 C   0  0  0  0  0  0  0  0  0  0  0  0
  5  2  1  0
  5  4  1  0
  6  5  1  0
  7  3  1  0
  9  4  1  0
  9  7  1  0
 10  1  1  0
 11  1  1  0
 11  2  1  0
 11  8  1  0
 12  2  1  0
 13 10  2  0
 13 12  1  0
M  END
$$$$
