
     RDKit          3D

 15 15  0  0  0  0  0  0  0  0999 V2000
   37.8458   56.7623   44.8211 N   0  0  0  0  0  0  0  0  0  0  0  0
   36.4679   53.6917   44.1182 C   0  0  0  0  0  0  0  0  0  0  0  0
   36.5091   54.0195   42.6900 C   0  0  0  0  0  0  0  0  0  0  0  0
   33.0449   56.3172   45.7742 C   0  0  0  0  0  0  0  0  0  0  0  0
   31.7637   56.4085   44.9894 C   0  0  0  0  0  0  0  0  0  0  0  0
   35.8903   51.9117   45.9599 C   0  0  0  0  0  0  0  0  0  0  0  0
   33.9021   55.0914   45.5559 C   0  0  0  0  0  0  0  0  0  0  0  0
   33.4502   58.7024   45.1476 N   0  0  0  0  0  0  0  0  0  0  0  0
   36.4727   54.7174   45.2578 C   0  0  0  0  0  0  0  0  0  0  0  0
   35.2893   55.5860   45.3678 N   0  0  0  0  0  0  0  0  0  0  0  0
   34.0126   57.5061   45.4586 C   0  0  0  0  0  0  0  0  0  0  0  0
   36.3993   52.3326   44.5912 C   0  0  0  0  0  0  0  0  0  0  0  0
   37.8502   55.3870   45.3776 C   0  0  0  0  0  0  0  0  0  0  0  0
   35.2116   56.9051   44.7854 C   0  0  0  0  0  0  0  0  0  0  0  0
   35.7609   53.0568   41.8205 C   0  0  0  0  0  0  0  0  0  0  0  0
  3  2  1  0
  5  4  1  0
  7  4  1  0
  9  2  1  0
 10  7  1  0
 10  9  1  0
 11  4  1  0
 11  8  1  0
 12  2  1  0
 12  6  1  0
 13  1  1  0
 13  9  1  0
 14 10  1  0
 14 11  1  0
 15  3  1  0
M  END
$$$$
