
     RDKit          3D

 18 18  0  0  0  0  0  0  0  0999 V2000
   37.7640   47.0771   43.3318 C   0  0  0  0  0  0  0  0  0  0  0  0
   39.2816   45.8116   44.8888 C   0  0  0  0  0  0  0  0  0  0  0  0
   41.3557   44.6078   41.1147 C   0  0  0  0  0  0  0  0  0  0  0  0
   39.9701   45.5860   39.4334 C   0  0  0  0  0  0  0  0  0  0  0  0
   40.5960   46.8109   37.5239 C   0  0  0  0  0  0  0  0  0  0  0  0
   38.3525   44.8609   43.0365 N   0  0  0  0  0  0  0  0  0  0  0  0
   37.5251   48.3599   43.4397 C   0  0  0  0  0  0  0  0  0  0  0  0
   40.4641   43.2789   43.1004 C   0  0  0  0  0  0  0  0  0  0  0  0
   39.2023   45.2213   40.4804 N   0  0  0  0  0  0  0  0  0  0  0  0
   39.5772   46.3360   38.3351 C   0  0  0  0  0  0  0  0  0  0  0  0
   39.4623   44.1056   42.6456 C   0  0  0  0  0  0  0  0  0  0  0  0
   38.2118   46.5689   37.9484 C   0  0  0  0  0  0  0  0  0  0  0  0
   40.0146   44.6020   41.4020 C   0  0  0  0  0  0  0  0  0  0  0  0
   41.6660   45.5668   39.7717 S   0  0  0  0  0  0  0  0  0  0  0  0
   37.3220   45.8304   38.1010 O   0  0  0  0  0  0  0  0  0  0  0  0
   36.8847   49.3550   43.7527 C   0  0  0  0  0  0  0  0  0  0  0  0
   37.4532   50.3964   44.7361 C   0  0  0  0  0  0  0  0  0  0  0  0
   38.4441   45.9833   43.8459 C   0  0  0  0  0  0  0  0  0  0  0  0
  7  1  2  0
  9  4  1  0
 10  4  1  0
 10  5  1  0
 11  6  1  0
 11  8  1  0
 12 10  1  0
 13  3  1  0
 13  9  1  0
 13 11  1  0
 14  3  1  0
 14  4  1  0
 15 12  2  0
 16  7  2  0
 17 16  1  0
 18  1  1  0
 18  2  2  0
 18  6  1  0
M  END
$$$$
