
     RDKit          3D

  9  9  0  0  0  0  0  0  0  0999 V2000
   38.8937   45.7747   38.8083 C   0  0  0  0  0  0  0  0  0  0  0  0
   39.1453   46.8047   41.3395 C   0  0  0  0  0  0  0  0  0  0  0  0
   38.4822   45.5638   41.2026 C   0  0  0  0  0  0  0  0  0  0  0  0
   38.7492   47.7885   40.3262 C   0  0  0  0  0  0  0  0  0  0  0  0
   39.3216   49.1243   40.6892 C   0  0  0  0  0  0  0  0  0  0  0  0
   39.1193   47.2600   38.9335 C   0  0  0  0  0  0  0  0  0  0  0  0
   38.7403   45.2157   37.7233 O   0  0  0  0  0  0  0  0  0  0  0  0
   38.4959   44.9286   39.9323 C   0  0  0  0  0  0  0  0  0  0  0  0
   38.0781   45.4085   42.6649 C   0  0  0  0  0  0  0  0  0  0  0  0
  3  2  1  0
  4  2  1  0
  5  4  1  0
  6  1  1  0
  6  4  1  0
  7  1  1  0
  8  1  1  0
  8  3  1  0
  9  3  1  0
M  END
$$$$
