
     RDKit          3D

 11 10  0  0  0  0  0  0  0  0999 V2000
    9.5522   12.2929   12.5326 C   0  0  0  0  0  0  0  0  0  0  0  0
    8.7745   11.2565   12.1512 C   0  0  0  0  0  0  0  0  0  0  0  0
    7.8417   12.0047   14.5919 C   0  0  0  0  0  0  0  0  0  0  0  0
    7.3439   10.9819   14.0105 N   0  0  0  0  0  0  0  0  0  0  0  0
    8.2505   14.8692   16.8384 C   0  0  0  0  0  0  0  0  0  0  0  0
    7.8530   10.6307   12.8779 N   0  0  0  0  0  0  0  0  0  0  0  0
    8.9802   10.8924   10.8357 N   0  0  0  0  0  0  0  0  0  0  0  0
    7.3280   13.7265   16.4875 C   0  0  0  0  0  0  0  0  0  0  0  0
    7.2241   12.7174   15.7568 C   0  0  0  0  0  0  0  0  0  0  0  0
    8.9937   12.5422   14.0950 C   0  0  0  0  0  0  0  0  0  0  0  0
    9.7042   14.4709   16.7225 C   0  0  0  0  0  0  0  0  0  0  0  0
  2  1  2  0
  4  3  2  3
  6  2  1  0
  6  4  1  0
  7  2  1  0
  8  5  1  0
  9  3  1  0
  9  8  2  3
 10  3  1  0
 11  5  1  0
M  END
$$$$
