
     RDKit          3D

 13 13  0  0  0  0  0  0  0  0999 V2000
   11.2097   16.1622   12.0372 C   0  0  0  0  0  0  0  0  0  0  0  0
   12.6827   18.8391   15.7161 C   0  0  0  0  0  0  0  0  0  0  0  0
   11.7548   18.7363   16.7578 N   0  0  0  0  0  0  0  0  0  0  0  0
   11.8688   15.1649   12.9301 N   0  0  0  0  0  0  0  0  0  0  0  0
   14.0501   19.3836   16.1054 C   0  0  0  0  0  0  0  0  0  0  0  0
   11.2614   17.6403   14.1093 C   0  0  0  0  0  0  0  0  0  0  0  0
   13.4268   18.6202   13.3274 C   0  0  0  0  0  0  0  0  0  0  0  0
   10.6571   17.4497   12.7210 C   0  0  0  0  0  0  0  0  0  0  0  0
   10.3199   17.4222   15.2911 C   0  0  0  0  0  0  0  0  0  0  0  0
   14.7514   19.2538   13.7304 C   0  0  0  0  0  0  0  0  0  0  0  0
   14.8475   20.0287   15.0169 C   0  0  0  0  0  0  0  0  0  0  0  0
   12.2850   18.8095   14.2699 C   0  0  0  0  0  0  0  0  0  0  0  0
   10.7724   17.5491   16.6603 C   0  0  0  0  0  0  0  0  0  0  0  0
  3  2  1  0
  4  1  1  0
  5  2  1  0
  8  1  1  0
  8  6  1  0
  9  6  1  0
 10  7  1  0
 11  5  1  0
 11 10  1  0
 12  2  1  0
 12  6  1  0
 12  7  1  0
 13  9  1  0
M  END
$$$$
