
     RDKit          3D

 33 35  0  0  0  0  0  0  0  0999 V2000
   10.9877   14.3475   10.8790 C   0  0  0  0  0  0  0  0  0  0  0  0
   12.3015   15.4376   13.0702 C   0  0  0  0  0  0  0  0  0  0  0  0
    8.6659   17.7437   17.9367 C   0  0  0  0  0  0  0  0  0  0  0  0
    9.1712   10.3917   11.9904 C   0  0  0  0  0  0  0  0  0  0  0  0
    7.1967   14.5870   17.1649 O   0  0  0  0  0  0  0  0  0  0  0  0
    8.8736   18.1647   19.2914 C   0  0  0  0  0  0  0  0  0  0  0  0
    7.4197   18.1658   20.2464 S   0  0  0  0  0  0  0  0  0  0  0  0
    9.8364   11.6921   11.5275 C   0  0  0  0  0  0  0  0  0  0  0  0
    9.1531    9.3530   11.0243 O   0  0  0  0  0  0  0  0  0  0  0  0
   12.7174   15.7697   11.7707 C   0  0  0  0  0  0  0  0  0  0  0  0
   14.6335   17.1913   15.9520 C   0  0  0  0  0  0  0  0  0  0  0  0
    7.3849   10.7363   13.5292 N   0  0  0  0  0  0  0  0  0  0  0  0
    8.1431   15.3320   17.5438 N   0  0  0  0  0  0  0  0  0  0  0  0
    7.7083   12.4732   15.3053 C   0  0  0  0  0  0  0  0  0  0  0  0
    6.4061   12.1563   15.9258 C   0  0  0  0  0  0  0  0  0  0  0  0
   10.6229   13.9694   12.1454 C   0  0  0  0  0  0  0  0  0  0  0  0
   10.7051   11.5699   10.6340 O   0  0  0  0  0  0  0  0  0  0  0  0
    7.7140   16.5665   18.0016 C   0  0  0  0  0  0  0  0  0  0  0  0
   15.4845   16.3271   16.6426 C   0  0  0  0  0  0  0  0  0  0  0  0
   11.2617   14.5948   13.1524 C   0  0  0  0  0  0  0  0  0  0  0  0
    9.5478   14.8770   17.6307 C   0  0  0  0  0  0  0  0  0  0  0  0
    7.9114   10.1911   12.6012 C   0  0  0  0  0  0  0  0  0  0  0  0
    8.7175   13.2825   15.7054 C   0  0  0  0  0  0  0  0  0  0  0  0
    9.7950   12.8154   12.3477 N   0  0  0  0  0  0  0  0  0  0  0  0
   10.8466   11.0772    9.3453 C   0  0  0  0  0  0  0  0  0  0  0  0
    7.9876   11.8587   14.0469 C   0  0  0  0  0  0  0  0  0  0  0  0
   12.0213   15.2467   10.6346 C   0  0  0  0  0  0  0  0  0  0  0  0
   14.7056   18.3541   16.1706 O   0  0  0  0  0  0  0  0  0  0  0  0
    9.3930   13.4872   14.5799 N   0  0  0  0  0  0  0  0  0  0  0  0
   13.0947   16.0886   14.2108 C   0  0  0  0  0  0  0  0  0  0  0  0
   13.7631   16.5835   15.0500 N   0  0  0  0  0  0  0  0  0  0  0  0
    9.0648   12.6835   13.5656 C   0  0  0  0  0  0  0  0  0  0  0  0
    9.3546   13.4804   17.0083 C   0  0  0  0  0  0  0  0  0  0  0  0
  6  3  1  0
  7  6  1  0
  8  4  1  0
  9  4  1  0
 10  2  1  0
 13  5  1  0
 15 14  1  0
 16  1  1  0
 17  8  1  0
 18  3  1  0
 18 13  1  0
 19 11  1  0
 20  2  2  0
 20 16  2  0
 21 13  1  0
 22  4  1  0
 22 12  2  0
 23 14  2  0
 24  8  1  0
 24 16  1  0
 25 17  1  0
 26 12  1  0
 26 14  1  0
 27  1  1  0
 27 10  1  0
 28 11  2  0
 29 23  1  0
 30  2  1  0
 31 11  1  0
 31 30  2  3
 32 24  1  0
 32 26  1  0
 32 29  1  0
 33 21  1  0
 33 23  1  0
M  END
$$$$
