
     RDKit          3D

 19 19  0  0  0  0  0  0  0  0999 V2000
    8.9355   12.4808   13.7838 C   0  0  0  0  0  0  0  0  0  0  0  0
    7.9546   11.3093   13.6965 C   0  0  0  0  0  0  0  0  0  0  0  0
    8.0228   10.4997   12.5938 N   0  0  0  0  0  0  0  0  0  0  0  0
    8.9556   13.0389   15.1800 C   0  0  0  0  0  0  0  0  0  0  0  0
   12.1352   18.2050   12.2722 C   0  0  0  0  0  0  0  0  0  0  0  0
   11.1394   16.6999   14.6382 C   0  0  0  0  0  0  0  0  0  0  0  0
   10.9277   17.3669   11.8720 C   0  0  0  0  0  0  0  0  0  0  0  0
    9.6550   11.9809   11.5031 C   0  0  0  0  0  0  0  0  0  0  0  0
   11.1026   15.8411   12.1888 C   0  0  0  0  0  0  0  0  0  0  0  0
   13.0083   20.0724   13.7340 C   0  0  0  0  0  0  0  0  0  0  0  0
   12.1090   18.8099   13.6985 C   0  0  0  0  0  0  0  0  0  0  0  0
    9.5775   12.8907   12.6315 C   0  0  0  0  0  0  0  0  0  0  0  0
    7.1970   11.0075   14.7404 N   0  0  0  0  0  0  0  0  0  0  0  0
    9.7780   14.2559   15.3769 C   0  0  0  0  0  0  0  0  0  0  0  0
   12.3784   17.5989   14.7404 C   0  0  0  0  0  0  0  0  0  0  0  0
    8.8612   10.7849   11.5577 C   0  0  0  0  0  0  0  0  0  0  0  0
    9.9447   17.5009   14.8510 O   0  0  0  0  0  0  0  0  0  0  0  0
   11.1544   15.6210   13.7259 C   0  0  0  0  0  0  0  0  0  0  0  0
    9.8836   15.2014   14.1974 C   0  0  0  0  0  0  0  0  0  0  0  0
  2  1  1  0
  3  2  1  0
  4  1  1  0
  7  5  1  0
  9  7  1  0
 11  5  1  0
 11 10  1  0
 12  1  1  0
 12  8  1  0
 13  2  1  0
 14  4  1  0
 15  6  1  0
 16  3  1  0
 16  8  1  0
 17  6  1  0
 18  6  1  0
 18  9  1  0
 19 14  1  0
 19 18  1  0
M  END
$$$$
