
     RDKit          3D

 14 13  0  0  0  0  0  0  0  0999 V2000
   14.0027   17.1515   12.8923 C   0  0  0  0  0  0  0  0  0  0  0  0
   11.3184   16.6309   12.1425 C   0  0  0  0  0  0  0  0  0  0  0  0
   13.8619   18.4231   15.6414 C   0  0  0  0  0  0  0  0  0  0  0  0
   13.9448   16.6714   11.5078 C   0  0  0  0  0  0  0  0  0  0  0  0
   13.5140   18.5911   13.2200 C   0  0  0  0  0  0  0  0  0  0  0  0
   13.2721   17.3311   16.5446 C   0  0  0  0  0  0  0  0  0  0  0  0
   11.3574   16.2482   13.6338 C   0  0  0  0  0  0  0  0  0  0  0  0
   11.9510   16.9924   15.8995 C   0  0  0  0  0  0  0  0  0  0  0  0
    9.5353   14.1813   16.4992 C   0  0  0  0  0  0  0  0  0  0  0  0
   12.5671   17.0202   11.4243 N   0  0  0  0  0  0  0  0  0  0  0  0
   10.5106   15.0877   14.1915 C   0  0  0  0  0  0  0  0  0  0  0  0
   10.3148   15.0599   15.6910 C   0  0  0  0  0  0  0  0  0  0  0  0
   12.8039   18.6320   14.5121 C   0  0  0  0  0  0  0  0  0  0  0  0
   11.5269   17.5704   14.5378 C   0  0  0  0  0  0  0  0  0  0  0  0
  4  1  1  0
  5  1  1  0
  6  3  1  0
  7  2  1  0
  8  6  1  0
 10  2  1  0
 10  4  1  0
 11  7  1  0
 12  9  1  0
 12 11  1  0
 13  3  1  0
 13  5  1  0
 14  8  1  0
M  END
$$$$
