
     RDKit          3D

 16 16  0  0  0  0  0  0  0  0999 V2000
   14.2688   17.2176   11.3424 C   0  0  0  0  0  0  0  0  0  0  0  0
   14.6723   17.2351   17.0491 C   0  0  0  0  0  0  0  0  0  0  0  0
   11.4015   17.2260   15.3955 C   0  0  0  0  0  0  0  0  0  0  0  0
   13.7956   20.0468   17.2328 N   0  0  0  0  0  0  0  0  0  0  0  0
   10.3050   19.0934   12.9982 O   0  0  0  0  0  0  0  0  0  0  0  0
   12.5175   16.3579   16.2178 S   0  0  0  0  0  0  0  0  0  0  0  0
   12.6337   18.1993   13.0233 C   0  0  0  0  0  0  0  0  0  0  0  0
   15.1308   19.7321   17.6737 C   0  0  0  0  0  0  0  0  0  0  0  0
   11.6594   19.2077   12.5273 C   0  0  0  0  0  0  0  0  0  0  0  0
   12.3319   15.7599   12.2779 C   0  0  0  0  0  0  0  0  0  0  0  0
   13.2436   19.1560   16.2064 C   0  0  0  0  0  0  0  0  0  0  0  0
   15.4637   18.2252   17.6752 C   0  0  0  0  0  0  0  0  0  0  0  0
   13.4053   17.6605   16.5389 C   0  0  0  0  0  0  0  0  0  0  0  0
   15.1813   15.7844   16.9129 C   0  0  0  0  0  0  0  0  0  0  0  0
   11.8742   17.3578   14.0478 C   0  0  0  0  0  0  0  0  0  0  0  0
   13.2642   17.0195   12.3173 C   0  0  0  0  0  0  0  0  0  0  0  0
  6  3  1  0
  8  4  1  0
  9  5  1  0
  9  7  1  0
 11  4  1  0
 12  2  1  0
 12  8  1  0
 13  2  1  0
 13  6  2  3
 13 11  1  0
 14  2  1  0
 15  3  1  0
 15  7  1  0
 16  1  1  0
 16  7  1  0
 16 10  1  0
M  END
$$$$
